test/TEST190523/MAI_VLL.Txt

SYMMETRICAL COMPONENT PHASE-PHASE VOLTAGES BY BUS (for 3-phase buses)

Bus            Mag:   V1 (kV)    p.u.     V2 (kV)   %V2/V1    V0 (kV)    %V0/V1

sourcebus         72.41      1.049    0.03581    0.04946 1.106E-014 1.528E-014
busmvmai1         12.75     0.9961    0.02113     0.1657 1.819E-015 1.427E-014
busmvmai136       12.75       1.02    0.02116      0.166 1.875E-015 1.471E-014
busmvmai3         12.71      1.017    0.04496     0.3537 2.274E-015 1.789E-014
busmvmai2         12.71      1.017    0.04503     0.3542 1.875E-015 1.475E-014
busmvmai4         12.71      1.016     0.0457     0.3595 1.438E-015 1.131E-014
busmvmai46        12.71      1.017    0.04493     0.3535 1.438E-015 1.131E-014
busmvmai5         12.71      1.016    0.04636     0.3647 2.319E-015 1.824E-014
busmvmai862       7.379       0.59          0          0         0         0
busmvmai6         12.71      1.016    0.04648     0.3657 2.319E-015 1.824E-014
busmvmai859       7.283     0.5824          0          0         0         0
busmvmai860       7.283     0.5824          0          0         0         0
busmvmai7         12.71      1.016    0.04681     0.3683 1.364E-015 1.073E-014
busmvmai8         12.71      1.016    0.04722     0.3716 1.364E-015 1.074E-014
busmvmai9         12.71      1.016    0.04681     0.3683 1.875E-015 1.475E-014
busmvmai10        12.71      1.016    0.04697     0.3696 1.64E-015 1.29E-014
busmvmai56        12.71      1.016    0.04689      0.369 9.095E-016 7.157E-015
busmvmai861       7.283     0.5824          0          0         0         0
busmvmai12        12.71      1.016    0.04756     0.3742 1.875E-015 1.476E-014
busmvmai51        12.71      1.016    0.04722     0.3716 1.364E-015 1.074E-014
busmvmai2171       7.38     0.5901          0          0         0         0
busmvmai863       7.283     0.5824          0          0         0         0
busmvmai2165      7.281     0.5823          0          0         0         0
busmvmai694       12.71      1.016    0.04681     0.3683 2.274E-015 1.789E-014
busmvmai122       12.71      1.016    0.04698     0.3697 1.438E-015 1.132E-014
busmvmai11        12.71      1.016    0.04755     0.3742 1.438E-015 1.132E-014
busmvmai13        12.71      1.016    0.04753     0.3741 2.319E-015 1.825E-014
busmvmai18        12.71      1.016    0.04769     0.3753 1.875E-015 1.476E-014
busmvmai14        12.71      1.016     0.0475     0.3738 1.438E-015 1.132E-014
busmvmai15        12.71      1.016    0.04745     0.3734 1.819E-015 1.431E-014
busmvmai16        12.71      1.016    0.04744     0.3733 2.319E-015 1.825E-014
busmvmai2166      7.351     0.5878          0          0         0         0
busmvmai2172      7.379       0.59          0          0         0         0
busmvmai864       7.283     0.5824          0          0         0         0
busmvmai865       7.283     0.5824          0          0         0         0
busmvmai17        12.71      1.016    0.04744     0.3733 1.438E-015 1.132E-014
busmvmai695       12.71      1.016    0.04744     0.3733 1.017E-015 8.002E-015
busmvmai866       7.283     0.5824          0          0         0         0
busmvmai2176      7.283     0.5824          0          0         0         0
busmvmai2177      7.283     0.5824          0          0         0         0
busmvmai2178      7.283     0.5824          0          0         0         0
busmvmai19        12.71      1.016    0.04794     0.3773 1.017E-015 8.002E-015
busmvmai20        12.71      1.016    0.04828       0.38 1.438E-015 1.132E-014
busmvmai53        12.71      1.016    0.04794     0.3773 1.017E-015 8.002E-015
busmvmai21        12.71      1.016    0.04865     0.3829 2.274E-015 1.79E-014
busmvmai22         12.7      1.016    0.04908     0.3863 1.819E-015 1.432E-014
busmvmai23        12.71      1.016    0.04865     0.3829 2.274E-015 1.79E-014
busmvmai25         12.7      1.016    0.04955     0.3901 1.875E-015 1.476E-014
busmvmai52         12.7      1.016    0.04908     0.3863 1.364E-015 1.074E-014
busmvmai54         12.7      1.016    0.04908     0.3863 1.438E-015 1.132E-014
busmvmai55         12.7      1.016    0.04908     0.3863 1.819E-015 1.432E-014
busmvmai696       12.71      1.016    0.04865     0.3829 9.095E-016 7.158E-015
busmvmai24         12.7      1.016     0.0496     0.3904 1.438E-015 1.132E-014
busmvmai26         12.7      1.016    0.05008     0.3942 1.819E-015 1.432E-014
busmvmai49         12.7      1.016    0.04955     0.3901 1.64E-015 1.291E-014
busmvmai50         12.7      1.016    0.04955     0.3901 1.875E-015 1.476E-014
busmvmai27         12.7      1.016    0.05008     0.3942 1.875E-015 1.476E-014
busmvmai28         12.7      1.016    0.05044     0.3971 1.438E-015 1.132E-014
busmvmai29         12.7      1.016    0.05009     0.3943 1.875E-015 1.476E-014
busmvmai31         12.7      1.016    0.05086     0.4004 1.364E-015 1.074E-014
busmvmai30         12.7      1.016     0.0501     0.3944 2.274E-015 1.79E-014
busmvmai34         12.7      1.016    0.05011     0.3944 1.364E-015 1.074E-014
busmvmai867       7.388     0.5908          0          0         0         0
busmvmai43         12.7      1.016    0.05087     0.4005 2.274E-015 1.79E-014
busmvmai871       7.345     0.5874          0          0         0         0
busmvmai33         12.7      1.016    0.05099     0.4015 2.274E-015 1.79E-014
busmvmai32         12.7      1.016    0.05135     0.4043 1.875E-015 1.476E-014
busmvmai37         12.7      1.016    0.05182     0.4081 1.364E-015 1.074E-014
busmvmai44         12.7      1.016    0.05088     0.4006 1.364E-015 1.074E-014
busmvmai35         12.7      1.016    0.05011     0.3944 1.438E-015 1.132E-014
busmvmai36         12.7      1.016     0.0501     0.3944 1.438E-015 1.132E-014
busmvmai869       7.388     0.5908          0          0         0         0
busmvmai38         12.7      1.016    0.05219      0.411 1.875E-015 1.476E-014
busmvmai2181      7.391      0.591          0          0         0         0
busmvmai868       7.388     0.5908          0          0         0         0
busmvmai870       7.388     0.5908          0          0         0         0
busmvmai39         12.7      1.016    0.05221     0.4111 1.438E-015 1.132E-014
busmvmai40         12.7      1.015    0.05253     0.4137 1.438E-015 1.132E-014
busmvmai697        12.7      1.016    0.05224     0.4114 2.319E-015 1.826E-014
busmvmai41         12.7      1.015    0.05294     0.4169 1.819E-015 1.432E-014
busmvmai42         12.7      1.015    0.05295      0.417 1.364E-015 1.074E-014
busmvmai48         12.7      1.015    0.05325     0.4193 1.875E-015 1.477E-014
busmvmai303        12.7      1.015    0.05309     0.4181 2.319E-015 1.826E-014
busmvmai45         12.7      1.015    0.05296      0.417 1.819E-015 1.432E-014
busmvmai701        12.7      1.015    0.05296     0.4171 1.364E-015 1.074E-014
busmvmai47        12.71      1.017    0.04464     0.3511 1.438E-015 1.131E-014
busmvmai179       12.71      1.017    0.04479     0.3523 1.875E-015 1.475E-014
busmvmai160       12.71      1.017    0.04392     0.3455 1.364E-015 1.073E-014
busmvmai1103      7.394     0.5913          0          0         0         0
busmvmai259        12.7      1.015     0.0534     0.4206 1.364E-015 1.074E-014
busmvmai304        12.7      1.015    0.05325     0.4193 1.875E-015 1.477E-014
busmvmai702        12.7      1.016    0.04955     0.3901 1.438E-015 1.132E-014
busmvmai58        12.71      1.016    0.04708     0.3705 1.364E-015 1.074E-014
busmvmai57        12.71      1.016    0.04747     0.3735 1.875E-015 1.476E-014
busmvmai60        12.71      1.016    0.04763     0.3748 1.364E-015 1.074E-014
busmvmai703       12.71      1.016    0.04747     0.3735 1.364E-015 1.074E-014
busmvmai123       12.71      1.016    0.04699     0.3698 1.364E-015 1.074E-014
busmvmai59        12.71      1.016     0.0478     0.3762 1.364E-015 1.074E-014
busmvmai61        12.71      1.016     0.0481     0.3786 1.017E-015 8.003E-015
busmvmai63        12.71      1.016    0.04765      0.375 1.364E-015 1.074E-014
busmvmai874        7.28     0.5821          0          0         0         0
busmvmai62         12.7      1.016    0.04839     0.3809 1.438E-015 1.132E-014
busmvmai64         12.7      1.016    0.04864     0.3829 1.875E-015 1.476E-014
busmvmai942       7.278      0.582          0          0         0         0
busmvmai873       7.278      0.582          0          0         0         0
busmvmai872       7.278      0.582          0          0         0         0
busmvmai880       7.278      0.582          0          0         0         0
busmvmai945        7.28     0.5821          0          0         0         0
busmvmai65         12.7      1.016    0.04889     0.3849 1.875E-015 1.476E-014
busmvmai66         12.7      1.016    0.04915      0.387 2.274E-015 1.79E-014
busmvmai67         12.7      1.016    0.04944     0.3893 1.875E-015 1.476E-014
busmvmai878       7.369     0.5893          0          0         0         0
busmvmai68         12.7      1.016    0.04964     0.3909 2.319E-015 1.826E-014
busmvmai706        12.7      1.016    0.04944     0.3893 1.438E-015 1.132E-014
busmvmai876        7.28     0.5821          0          0         0         0
busmvmai875       7.279     0.5821          0          0         0         0
busmvmai877       7.279     0.5821          0          0         0         0
busmvmai883       7.279     0.5821          0          0         0         0
busmvmai884       7.279     0.5821          0          0         0         0
busmvmai886       7.279     0.5821          0          0         0         0
busmvmai885       7.369     0.5893          0          0         0         0
busmvmai879       7.278      0.582          0          0         0         0
busmvmai881       7.278      0.582          0          0         0         0
busmvmai888       7.278      0.582          0          0         0         0
busmvmai882       7.278      0.582          0          0         0         0
busmvmai944       7.278      0.582          0          0         0         0
busmvmai889       7.279     0.5821          0          0         0         0
busmvmai2183      7.279     0.5821          0          0         0         0
busmvmai2184      7.279     0.5821          0          0         0         0
busmvmai71         12.7      1.015    0.04983     0.3924 2.449E-015 1.928E-014
busmvmai2182      7.369     0.5893          0          0         0         0
busmvmai2185      7.369     0.5893          0          0         0         0
busmvmai2186      7.369     0.5893          0          0         0         0
busmvmai887       7.279     0.5821          0          0         0         0
busmvmai892       7.279     0.5821          0          0         0         0
busmvmai897       7.278     0.5819          0          0         0         0
busmvmai890       7.279     0.5821          0          0         0         0
busmvmai891       7.279      0.582          0          0         0         0
busmvmai896       7.279      0.582          0          0         0         0
busmvmai893       7.279     0.5821          0          0         0         0
busmvmai894       7.279     0.5821          0          0         0         0
busmvmai895       7.279     0.5821          0          0         0         0
busmvmai898       7.279     0.5821          0          0         0         0
busmvmai70         12.7      1.016    0.04944     0.3893 1.819E-015 1.432E-014
busmvmai69         12.7      1.016    0.04944     0.3893 1.819E-015 1.432E-014
busmvmai708        12.7      1.016    0.04944     0.3893 2.319E-015 1.826E-014
busmvmai72         12.7      1.015    0.05008     0.3944 1.438E-015 1.132E-014
busmvmai73         12.7      1.015    0.05029      0.396 2.274E-015 1.791E-014
busmvmai134        12.7      1.015    0.05008     0.3944 1.64E-015 1.291E-014
busmvmai900       7.277     0.5819          0          0         0         0
busmvmai904       7.279     0.5821          0          0         0         0
busmvmai75         12.7      1.015    0.05041      0.397 1.364E-015 1.074E-014
busmvmai718        12.7      1.015    0.05029      0.396 1.364E-015 1.074E-014
busmvmai899       7.277     0.5819          0          0         0         0
busmvmai902       7.277     0.5819          0          0         0         0
busmvmai901       7.277     0.5819          0          0         0         0
busmvmai903       7.277     0.5819          0          0         0         0
busmvmai905       7.277     0.5819          0          0         0         0
busmvmai907       7.277     0.5819          0          0         0         0
busmvmai906       7.277     0.5819          0          0         0         0
busmvmai946       7.277     0.5819          0          0         0         0
busmvmai74         12.7      1.015    0.05041      0.397 1.819E-015 1.433E-014
busmvmai76         12.7      1.015    0.05045     0.3973 1.364E-015 1.074E-014
busmvmai77         12.7      1.015    0.05047     0.3975 1.438E-015 1.133E-014
busmvmai79         12.7      1.015    0.05045     0.3974 1.438E-015 1.133E-014
busmvmai81         12.7      1.015    0.05043     0.3972 1.364E-015 1.074E-014
busmvmai91         12.7      1.015    0.05065     0.3989 1.875E-015 1.477E-014
busmvmai78         12.7      1.015    0.05053     0.3979 1.819E-015 1.433E-014
busmvmai80         12.7      1.015     0.0506     0.3985 1.364E-015 1.074E-014
busmvmai908       7.364     0.5888          0          0         0         0
busmvmai89         12.7      1.015    0.05063     0.3987 1.364E-015 1.074E-014
busmvmai949       7.277     0.5819          0          0         0         0
busmvmai82         12.7      1.015    0.05041      0.397 1.364E-015 1.074E-014
busmvmai83         12.7      1.015    0.05042     0.3972 1.875E-015 1.477E-014
busmvmai86         12.7      1.015    0.05044     0.3973 1.438E-015 1.133E-014
busmvmai85         12.7      1.015    0.05026     0.3959 2.034E-015 1.602E-014
busmvmai84         12.7      1.015    0.05023     0.3956 1.875E-015 1.477E-014
busmvmai93         12.7      1.015    0.05021     0.3955 1.364E-015 1.074E-014
busmvmai2198      7.353      0.588          0          0         0         0
busmvmai709        12.7      1.015    0.05029      0.396 1.875E-015 1.477E-014
busmvmai88         12.7      1.015    0.05046     0.3974 1.875E-015 1.477E-014
busmvmai87         12.7      1.015    0.05047     0.3975 1.875E-015 1.477E-014
busmvmai99         12.7      1.015    0.05048     0.3976 1.875E-015 1.477E-014
busmvmai722        12.7      1.015    0.05047     0.3975 1.875E-015 1.477E-014
busmvmai909       7.364     0.5888          0          0         0         0
busmvmai90         12.7      1.015    0.05064     0.3989 1.819E-015 1.433E-014
busmvmai102        12.7      1.015    0.05066      0.399 1.819E-015 1.433E-014
busmvmai92         12.7      1.015    0.05081     0.4002 1.875E-015 1.477E-014
busmvmai132        12.7      1.015    0.05065     0.3989 9.095E-016 7.164E-015
busmvmai98         12.7      1.015     0.0508     0.4002 1.438E-015 1.133E-014
busmvmai100       12.69      1.015    0.05106     0.4022 2.274E-015 1.791E-014
busmvmai723        12.7      1.015     0.0508     0.4002 1.438E-015 1.133E-014
busmvmai96         12.7      1.015    0.05019     0.3953 1.438E-015 1.133E-014
busmvmai916       7.365     0.5889          0          0         0         0
busmvmai95         12.7      1.015    0.05077     0.3999 1.364E-015 1.075E-014
busmvmai94         12.7      1.015    0.05074     0.3997 1.819E-015 1.433E-014
busmvmai112        12.7      1.015    0.05074     0.3997 2.274E-015 1.791E-014
busmvmai126        12.7      1.015    0.05078        0.4 1.438E-015 1.133E-014
busmvmai97         12.7      1.015    0.05016     0.3951 1.875E-015 1.477E-014
busmvmai711        12.7      1.015    0.05019     0.3953 1.364E-015 1.074E-014
busmvmai915       7.365     0.5889          0          0         0         0
...
buslvmai1         0.121     0.5822          0          0         0         0
buslvmai2        0.1214      0.584          0          0         0         0
buslvmai3         0.121     0.5821          0          0         0         0
buslvmai4        0.1222      0.588          0          0         0         0
buslvmai5        0.1217     0.5857          0          0         0         0
buslvmai6        0.1208     0.5812          0          0         0         0
buslvmai7         0.121     0.5822          0          0         0         0
buslvmai8        0.1204     0.5794          0          0         0         0
buslvmai9        0.1202     0.5785          0          0         0         0
buslvmai10       0.1203      0.579          0          0         0         0
buslvmai11       0.1221     0.5876          0          0         0         0
buslvmai12        0.122     0.5872          0          0         0         0
buslvmai13       0.1226     0.5898          0          0         0         0
buslvmai14       0.1228     0.5906          0          0         0         0
buslvmai15       0.1227     0.5904          0          0         0         0
buslvmai16        0.121     0.5821          0          0         0         0
buslvmai17       0.1194     0.5744          0          0         0         0
buslvmai18       0.1209     0.5816          0          0         0         0
buslvmai19       0.1212     0.5831          0          0         0         0
buslvmai20       0.1216     0.5849          0          0         0         0
buslvmai21        0.121     0.5822          0          0         0         0
buslvmai22       0.1224     0.5888          0          0         0         0
buslvmai23       0.1209     0.5817          0          0         0         0
buslvmai24        0.121      0.582          0          0         0         0
buslvmai25       0.1208     0.5813          0          0         0         0
buslvmai26        0.122      0.587          0          0         0         0
buslvmai27       0.1221     0.5877          0          0         0         0
buslvmai28       0.1209     0.5816          0          0         0         0
buslvmai29       0.1203     0.5787          0          0         0         0
buslvmai30        0.122     0.5872          0          0         0         0
buslvmai31        0.121     0.5821          0          0         0         0
buslvmai32       0.1224     0.5889          0          0         0         0
buslvmai33       0.1208     0.5814          0          0         0         0
buslvmai34       0.1189     0.5723          0          0         0         0
buslvmai35       0.1209     0.5818          0          0         0         0
buslvmai36       0.1209     0.5818          0          0         0         0
buslvmai37       0.1209     0.5817          0          0         0         0
buslvmai38       0.1191     0.5731          0          0         0         0
buslvmai39       0.1222     0.5878          0          0         0         0
buslvmai40       0.1205     0.5797          0          0         0         0
buslvmai41       0.1224     0.5887          0          0         0         0
buslvmai42       0.1223     0.5886          0          0         0         0
buslvmai43       0.1224     0.5887          0          0         0         0
buslvmai44       0.1208      0.581          0          0         0         0
buslvmai45       0.1207     0.5808          0          0         0         0
buslvmai46       0.1209     0.5816          0          0         0         0
buslvmai47       0.1209     0.5818          0          0         0         0
buslvmai48       0.1203     0.5788          0          0         0         0
buslvmai49       0.1224     0.5887          0          0         0         0
buslvmai50       0.1202     0.5783          0          0         0         0
buslvmai51       0.1215     0.5847          0          0         0         0
buslvmai52       0.1209     0.5818          0          0         0         0
buslvmai53       0.1209     0.5818          0          0         0         0
buslvmai54       0.1204     0.5793          0          0         0         0
buslvmai55       0.1224     0.5889          0          0         0         0
buslvmai56        0.121     0.5822          0          0         0         0
buslvmai57       0.1209     0.5815          0          0         0         0
buslvmai58       0.1209     0.5818          0          0         0         0
buslvmai59       0.1224     0.5887          0          0         0         0
buslvmai60       0.1223     0.5882          0          0         0         0
buslvmai61       0.1211     0.5825          0          0         0         0
buslvmai62        0.122     0.5867          0          0         0         0
buslvmai63       0.1221     0.5876          0          0         0         0
buslvmai64       0.1221     0.5873          0          0         0         0
buslvmai65       0.1224     0.5887          0          0         0         0
buslvmai66       0.1209     0.5818          0          0         0         0
buslvmai67       0.1218     0.5861          0          0         0         0
buslvmai68       0.1218     0.5862          0          0         0         0
buslvmai69       0.1209     0.5818          0          0         0         0
buslvmai70       0.1206       0.58          0          0         0         0
buslvmai71       0.1223     0.5883          0          0         0         0
buslvmai72       0.1223     0.5884          0          0         0         0
buslvmai73       0.1224     0.5888          0          0         0         0
buslvmai74       0.1224     0.5887          0          0         0         0
buslvmai75       0.1221     0.5875          0          0         0         0
buslvmai76       0.1209     0.5818          0          0         0         0
buslvmai77       0.1217     0.5853          0          0         0         0
buslvmai78       0.1224      0.589          0          0         0         0
buslvmai79       0.1209     0.5815          0          0         0         0
buslvmai80       0.1197     0.5761          0          0         0         0
buslvmai81       0.1209     0.5818          0          0         0         0
buslvmai82        0.121     0.5822          0          0         0         0
buslvmai83        0.122     0.5872          0          0         0         0
buslvmai84        0.121     0.5821          0          0         0         0
buslvmai85       0.1223     0.5883          0          0         0         0
buslvmai86       0.1222     0.5881          0          0         0         0
buslvmai87       0.1226       0.59          0          0         0         0
buslvmai88        0.121     0.5819          0          0         0         0
buslvmai89       0.1209     0.5818          0          0         0         0
buslvmai90       0.1204     0.5794          0          0         0         0
buslvmai91       0.1209     0.5818          0          0         0         0
buslvmai92       0.1219     0.5867          0          0         0         0
buslvmai93       0.1208     0.5814          0          0         0         0
buslvmai94       0.1211     0.5824          0          0         0         0
buslvmai95       0.1209     0.5815          0          0         0         0
buslvmai96       0.1209     0.5817          0          0         0         0
buslvmai97       0.1222     0.5878          0          0         0         0
buslvmai98       0.1222     0.5878          0          0         0         0
buslvmai99       0.1209     0.5817          0          0         0         0
buslvmai100       0.121     0.5821          0          0         0         0
buslvmai101      0.1209     0.5815          0          0         0         0
buslvmai102      0.1209     0.5818          0          0         0         0
buslvmai103      0.1208     0.5813          0          0         0         0
buslvmai104      0.1207     0.5809          0          0         0         0
buslvmai105      0.1206     0.5804          0          0         0         0
buslvmai106      0.1223     0.5886          0          0         0         0
buslvmai107      0.1209     0.5818          0          0         0         0
buslvmai108      0.1209     0.5815          0          0         0         0
buslvmai109       0.122     0.5871          0          0         0         0
buslvmai110      0.1221     0.5873          0          0         0         0
buslvmai111      0.1222     0.5877          0          0         0         0
buslvmai112      0.1223     0.5882          0          0         0         0
buslvmai113      0.1222     0.5878          0          0         0         0
buslvmai114       0.121     0.5821          0          0         0         0
buslvmai115      0.1222     0.5877          0          0         0         0
buslvmai116      0.1208     0.5814          0          0         0         0
buslvmai117       0.122     0.5871          0          0         0         0
buslvmai118      0.1225     0.5893          0          0         0         0
buslvmai119      0.1206     0.5801          0          0         0         0
buslvmai120      0.1221     0.5877          0          0         0         0
buslvmai121      0.1222     0.5879          0          0         0         0
buslvmai122      0.1208     0.5813          0          0         0         0
buslvmai123      0.1222     0.5879          0          0         0         0
buslvmai124      0.1205     0.5798          0          0         0         0
buslvmai125      0.1201     0.5778          0          0         0         0
buslvmai126      0.1222      0.588          0          0         0         0
buslvmai127      0.1208     0.5813          0          0         0         0
buslvmai128      0.1225     0.5892          0          0         0         0
buslvmai129      0.1221     0.5877          0          0         0         0
buslvmai130      0.1223     0.5884          0          0         0         0
buslvmai131      0.1209     0.5816          0          0         0         0
buslvmai132      0.1221     0.5877          0          0         0         0
buslvmai133      0.1208     0.5814          0          0         0         0
buslvmai134      0.1206       0.58          0          0         0         0
buslvmai135      0.1208      0.581          0          0         0         0
buslvmai136      0.1219     0.5866          0          0         0         0
buslvmai137      0.1223     0.5885          0          0         0         0
buslvmai138       0.122     0.5869          0          0         0         0
buslvmai139      0.1214     0.5841          0          0         0         0
buslvmai140       0.122      0.587          0          0         0         0
buslvmai141      0.1222      0.588          0          0         0         0
buslvmai142      0.1219     0.5863          0          0         0         0
buslvmai143      0.1221     0.5874          0          0         0         0
buslvmai144      0.1208     0.5813          0          0         0         0
buslvmai145      0.1222      0.588          0          0         0         0
buslvmai146      0.1222     0.5878          0          0         0         0
buslvmai147      0.1223     0.5884          0          0         0         0
buslvmai148      0.1207     0.5809          0          0         0         0
buslvmai149      0.1222     0.5877          0          0         0         0
buslvmai150      0.1215     0.5843          0          0         0         0
buslvmai151       0.122      0.587          0          0         0         0
buslvmai152      0.1221     0.5876          0          0         0         0
buslvmai153        0.12     0.5774          0          0         0         0
buslvmai154      0.1208     0.5814          0          0         0         0
buslvmai155      0.1221     0.5874          0          0         0         0
buslvmai156      0.1222     0.5877          0          0         0         0
buslvmai157      0.1215     0.5844          0          0         0         0
buslvmai158      0.1221     0.5875          0          0         0         0
buslvmai159      0.1222     0.5879          0          0         0         0
buslvmai160      0.1222     0.5878          0          0         0         0
buslvmai161       0.122     0.5871          0          0         0         0
buslvmai162       0.122     0.5867          0          0         0         0
buslvmai163      0.1221     0.5876          0          0         0         0
buslvmai164      0.1223     0.5885          0          0         0         0
buslvmai165      0.1214      0.584          0          0         0         0
buslvmai166      0.1219     0.5865          0          0         0         0
buslvmai167      0.1209     0.5818          0          0         0         0
buslvmai168      0.1209     0.5815          0          0         0         0
buslvmai169      0.1201     0.5777          0          0         0         0
buslvmai170      0.1221     0.5877          0          0         0         0
buslvmai171      0.1216     0.5848          0          0         0         0
buslvmai172       0.121     0.5821          0          0         0         0
buslvmai173      0.1208     0.5813          0          0         0         0
buslvmai174      0.1221     0.5875          0          0         0         0
buslvmai175      0.1215     0.5848          0          0         0         0
buslvmai176      0.1207     0.5807          0          0         0         0
buslvmai177      0.1209     0.5815          0          0         0         0
buslvmai178      0.1221     0.5875          0          0         0         0
buslvmai179       0.122     0.5869          0          0         0         0
buslvmai180      0.1222     0.5877          0          0         0         0
buslvmai181      0.1221     0.5877          0          0         0         0
buslvmai182      0.1218     0.5858          0          0         0         0
buslvmai183      0.1207     0.5809          0          0         0         0
buslvmai184      0.1223     0.5884          0          0         0         0
buslvmai185      0.1219     0.5863          0          0         0         0
buslvmai186      0.1208     0.5814          0          0         0         0
buslvmai187      0.1209     0.5816          0          0         0         0
buslvmai188      0.1222     0.5878          0          0         0         0
buslvmai189      0.1222     0.5877          0          0         0         0
buslvmai190      0.1222     0.5878          0          0         0         0
buslvmai191      0.1208     0.5814          0          0         0         0
buslvmai192      0.1221     0.5876          0          0         0         0
buslvmai193      0.1221     0.5877          0          0         0         0
buslvmai194      0.1207     0.5809          0          0         0         0
buslvmai195      0.1208     0.5814          0          0         0         0
buslvmai196      0.1222     0.5878          0          0         0         0
buslvmai197       0.122     0.5869          0          0         0         0
buslvmai198      0.1222     0.5878          0          0         0         0
buslvmai199      0.1222     0.5878          0          0         0         0
buslvmai200      0.1221     0.5876          0          0         0         0
...
